
Circuit: *voltage divider netlist

Doing analysis at TEMP = 27.000000 and TNOM = 27.000000


No. of Data Rows : 1
********************************************
Operating point
********************************************
op_TAB
@gib[i] = -2.45467e-04
@id[current] = 1.019056e-03
@r1[i] = 2.344922e-04
@r2[i] = -2.45467e-04
@r3[i] = 1.097445e-05
@r4[i] = 1.220071e-03
@r5[i] = -1.26452e-03
@r6[i] = -9.85579e-04
@r7[i] = -9.85579e-04
hvc#branch = 3.347718e-05
v1 = 8.216102e+00
v2 = 2.974054e+00
v3 = 9.905358e-01
v4 = 1.188846e+01
v5 = 7.473699e+00
v6 = 7.977039e+00
v7 = 8.010982e+00
v8 = 2.974054e+00
va#branch = -2.34492e-04
vvc#branch = 9.855785e-04
op_END
********************************************
Given Values
********************************************
op_TAB1
R1 = 1.01949191994 Kohms
R2 = 2.05054429461 Kohms
R3 = 3.09286027724 Kohms
R4 = 4.12838973576 Kohms
R5 = 3.06635427647 Kohms
R6 = 2.01254230153 Kohms
R7 = 1.00502981701 Kohms
Va = 5.24204797361 V
Id = 1.01905568201 mA
Kb = 7.23185131759 mS
Kc = 8.12820254987 Kohms
op_END1
ngspice-31 done
